MODEL        1
REMARK  Name = ZINC03852038
REMARK                            x       y       z     vdW  Elec       q    Type
REMARK                         _______ _______ _______ _____ _____    ______ ____
ROOT
ATOM      1  C   LIG    1        3.659   2.163  -0.022  0.00  0.00    +0.013 A 
ATOM      2  C   LIG    1        4.722   1.976   0.805  0.00  0.00    +0.102 A 
ATOM      3  N   LIG    1        5.709   2.866   0.482  0.00  0.00    -0.300 N 
ATOM      4  C   LIG    1        5.310   3.662  -0.557  0.00  0.00    +0.151 A 
ATOM      5  N   LIG    1        5.896   4.670  -1.228  0.00  0.00    -0.218 NA
ATOM      6  C   LIG    1        5.308   5.293  -2.205  0.00  0.00    +0.219 A 
ATOM      7  N   LIG    1        4.055   4.984  -2.635  0.00  0.00    -0.250 N 
ATOM      8  C   LIG    1        3.354   3.962  -2.018  0.00  0.00    +0.153 A 
ATOM      9  N   LIG    1        2.143   3.634  -2.403  0.00  0.00    -0.282 NA
ATOM     10  H   LIG    1        1.721   4.110  -3.135  0.00  0.00    +0.188 HD
ATOM     11  C   LIG    1        4.022   3.263  -0.918  0.00  0.00    +0.070 A 
ENDROOT
BRANCH   3  12
ATOM     12  C   LIG    1        6.950   2.955   1.127  0.00  0.00    +0.048 A 
ATOM     13  C   LIG    1        8.122   2.971   0.383  0.00  0.00    +0.027 A 
ATOM     14  C   LIG    1        9.343   3.063   1.021  0.00  0.00    +0.022 A 
ATOM     15  C   LIG    1        9.400   3.129   2.402  0.00  0.00    +0.041 A 
ATOM     16 CL   LIG    1       10.937   3.239   3.202  0.00  0.00    -0.084 Cl
ATOM     17  C   LIG    1        8.234   3.108   3.147  0.00  0.00    +0.022 A 
ATOM     18  C   LIG    1        7.010   3.021   2.513  0.00  0.00    +0.027 A 
ENDBRANCH   3  12
BRANCH   1  22
ATOM     19  C   LIG    1        0.002  -0.004   0.002  0.00  0.00    +0.000 A 
ATOM     20  C   LIG    1       -0.017   1.379   0.010  0.00  0.00    +0.001 A 
ATOM     21  C   LIG    1        1.167   2.088   0.002  0.00  0.00    +0.008 A 
ATOM     22  C   LIG    1        2.384   1.407  -0.014  0.00  0.00    -0.016 A 
ATOM     23  C   LIG    1        2.397   0.013  -0.021  0.00  0.00    +0.008 A 
ATOM     24  C   LIG    1        1.206  -0.685  -0.013  0.00  0.00    +0.001 A 
ENDBRANCH   1  22
BRANCH   7  25
ATOM     25  N   LIG    1        3.492   5.678  -3.668  0.00  0.00    -0.240 N 
ATOM     26  H   LIG    1        4.191   5.953  -4.342  0.00  0.00    +0.143 HD
ATOM     27  H   LIG    1        2.981   6.480  -3.329  0.00  0.00    +0.143 HD
ENDBRANCH   7  25
TORSDOF 3
ENDMDL
MODEL        2
REMARK  Name = ZINC03852044
REMARK                            x       y       z     vdW  Elec       q    Type
REMARK                         _______ _______ _______ _____ _____    ______ ____
ROOT
ATOM      1  N   LIG    1        4.126  -0.342   0.482  0.00  0.00    -0.300 N 
ATOM      2  C   LIG    1        2.862   0.064   0.814  0.00  0.00    +0.102 A 
ATOM      3  C   LIG    1        2.481   1.071  -0.015  0.00  0.00    +0.013 A 
ATOM      4  C   LIG    1        3.605   1.308  -0.922  0.00  0.00    +0.070 A 
ATOM      5  C   LIG    1        3.862   2.230  -2.030  0.00  0.00    +0.153 A 
ATOM      6  N   LIG    1        2.964   3.107  -2.413  0.00  0.00    -0.282 NA
ATOM      7  H   LIG    1        3.156   3.708  -3.150  0.00  0.00    +0.188 HD
ATOM      8  N   LIG    1        5.092   2.137  -2.657  0.00  0.00    -0.250 N 
ATOM      9  C   LIG    1        5.995   1.214  -2.230  0.00  0.00    +0.219 A 
ATOM     10  N   LIG    1        5.763   0.398  -1.246  0.00  0.00    -0.218 NA
ATOM     11  C   LIG    1        4.603   0.398  -0.566  0.00  0.00    +0.151 A 
ENDROOT
BRANCH   3  12
ATOM     12  C   LIG    1        1.184   1.790   0.000  0.00  0.00    -0.016 A 
ATOM     13  C   LIG    1       -0.013   1.076   0.008  0.00  0.00    +0.010 A 
ATOM     14  C   LIG    1       -1.216   1.751   0.017  0.00  0.00    +0.020 A 
ATOM     15  C   LIG    1       -1.236   3.135   0.030  0.00  0.00    +0.041 A 
ATOM     16 CL   LIG    1       -2.754   3.978   0.048  0.00  0.00    -0.084 Cl
ATOM     17  C   LIG    1       -0.050   3.849   0.022  0.00  0.00    +0.020 A 
ATOM     18  C   LIG    1        1.159   3.184   0.008  0.00  0.00    +0.010 A 
ENDBRANCH   3  12
BRANCH   1  22
ATOM     19  C   LIG    1        6.233  -3.382   2.402  0.00  0.00    +0.000 A 
ATOM     20  C   LIG    1        5.633  -2.383   3.146  0.00  0.00    +0.002 A 
ATOM     21  C   LIG    1        4.934  -1.374   2.513  0.00  0.00    +0.026 A 
ATOM     22  C   LIG    1        4.835  -1.364   1.128  0.00  0.00    +0.048 A 
ATOM     23  C   LIG    1        5.433  -2.372   0.384  0.00  0.00    +0.026 A 
ATOM     24  C   LIG    1        6.136  -3.375   1.023  0.00  0.00    +0.002 A 
ENDBRANCH   1  22
BRANCH   8  25
ATOM     25  N   LIG    1        5.398   2.967  -3.698  0.00  0.00    -0.240 N 
ATOM     26  H   LIG    1        5.982   2.499  -4.374  0.00  0.00    +0.143 HD
ATOM     27  H   LIG    1        5.835   3.814  -3.368  0.00  0.00    +0.143 HD
ENDBRANCH   8  25
TORSDOF 3
ENDMDL
MODEL        3
REMARK  Name = ZINC04597192
REMARK                            x       y       z     vdW  Elec       q    Type
REMARK                         _______ _______ _______ _____ _____    ______ ____
ROOT
ATOM      1  C   LIG    1        2.614   5.803   0.008  0.00  0.00    +0.155 C 
ATOM      2  N   LIG    1        3.328   4.523  -0.007  0.00  0.00    -0.281 N 
ATOM      3  C   LIG    1        2.614   3.346  -0.006  0.00  0.00    +0.149 A 
ATOM      4  C   LIG    1        3.300   2.139  -0.019  0.00  0.00    +0.172 A 
ATOM      5  N   LIG    1        2.374   1.144  -0.015  0.00  0.00    -0.208 NA
ATOM      6  C   LIG    1        1.178   1.674  -0.000  0.00  0.00    +0.195 A 
ATOM      7  C   LIG    1        4.762   2.171  -0.034  0.00  0.00    +0.284 A 
ATOM      8  N   LIG    1        5.381   3.372  -0.034  0.00  0.00    -0.262 N 
ATOM      9  C   LIG    1        6.845   3.430  -0.048  0.00  0.00    +0.157 C 
ATOM     10  O   LIG    1        5.407   1.139  -0.046  0.00  0.00    -0.265 OA
ATOM     11  N   LIG    1        1.286   3.038   0.001  0.00  0.00    -0.312 N 
ATOM     12  H   LIG    1        0.529   3.691   0.005  0.00  0.00    +0.170 HD
ATOM     13  C   LIG    1        4.673   4.513  -0.020  0.00  0.00    +0.333 A 
ATOM     14  O   LIG    1        5.268   5.574  -0.020  0.00  0.00    -0.246 OA
ENDROOT
BRANCH   6  15
ATOM     15  N   LIG    1       -0.011   0.966   0.007  0.00  0.00    -0.315 N 
ATOM     16  H   LIG    1        0.002  -0.004   0.002  0.00  0.00    +0.149 HD
BRANCH  15  17
ATOM     17  C   LIG    1       -1.290   1.681   0.017  0.00  0.00    +0.109 C 
BRANCH  17  18
ATOM     18  C   LIG    1       -2.439   0.671   0.017  0.00  0.00    +0.054 C 
BRANCH  18  19
ATOM     19  C   LIG    1       -3.754   1.407   0.028  0.00  0.00    -0.046 A 
ATOM     20  C   LIG    1       -4.354   1.733   1.229  0.00  0.00    +0.004 A 
ATOM     21  C   LIG    1       -5.558   2.412   1.239  0.00  0.00    +0.000 A 
ATOM     22  C   LIG    1       -6.167   2.756   0.046  0.00  0.00    +0.000 A 
ATOM     23  C   LIG    1       -5.570   2.425  -1.155  0.00  0.00    +0.000 A 
ATOM     24  C   LIG    1       -4.363   1.751  -1.165  0.00  0.00    +0.004 A 
ENDBRANCH  18  19
ENDBRANCH  17  18
ENDBRANCH  15  17
ENDBRANCH   6  15
TORSDOF 4
ENDMDL
