MODEL        5
REMARK  Name = ZINC02503793
REMARK                            x       y       z     vdW  Elec       q    Type
REMARK                         _______ _______ _______ _____ _____    ______ ____
ROOT
ATOM      1  C   LIG    1        4.743   2.656  -0.029  0.00  0.00    +0.151 C 
ENDROOT
BRANCH   1   8
ATOM      2  C   LIG    1       -1.214   1.752   0.017  0.00  0.00    +0.002 A 
ATOM      3  C   LIG    1       -1.240   3.139   0.031  0.00  0.00    +0.002 A 
ATOM      4  C   LIG    1       -0.078   3.858   0.023  0.00  0.00    +0.030 A 
ATOM      5  C   LIG    1        1.151   3.194   0.008  0.00  0.00    +0.089 A 
ATOM      6  C   LIG    1        1.178   1.790   0.000  0.00  0.00    +0.066 A 
ATOM      7  N   LIG    1        2.512   1.434  -0.014  0.00  0.00    -0.341 N 
ATOM      8  C   LIG    1        3.238   2.585  -0.015  0.00  0.00    +0.118 A 
ATOM      9  H   LIG    1        2.877   0.503  -0.022  0.00  0.00    +0.167 HD
ATOM     10  N   LIG    1        2.442   3.615  -0.002  0.00  0.00    -0.232 NA
ATOM     11  C   LIG    1       -0.013   1.076   0.008  0.00  0.00    +0.028 A 
ENDBRANCH   1   8
BRANCH   1  12
ATOM     12  S   LIG    1        5.330   2.694  -1.745  0.00  0.00    -0.078 S 
BRANCH  12  13
ATOM     13  C   LIG    1        7.084   2.777  -1.593  0.00  0.00    +0.191 A 
ATOM     14  N   LIG    1        7.744   2.807  -0.448  0.00  0.00    -0.219 NA
ATOM     15  C   LIG    1        9.062   2.867  -0.725  0.00  0.00    +0.109 A 
ATOM     16  C   LIG    1       10.219   2.918   0.047  0.00  0.00    +0.033 A 
ATOM     17  C   LIG    1       11.452   2.980  -0.596  0.00  0.00    +0.020 A 
ATOM     18  C   LIG    1       11.521   2.991  -1.954  0.00  0.00    +0.084 A 
ATOM     19  N   LIG    1       10.412   2.942  -2.715  0.00  0.00    -0.345 N 
ATOM     20  H   LIG    1       10.492   2.951  -3.681  0.00  0.00    +0.167 HD
ATOM     21  C   LIG    1        9.175   2.880  -2.139  0.00  0.00    +0.159 A 
ATOM     22  N   LIG    1        7.937   2.823  -2.617  0.00  0.00    -0.203 NA
ENDBRANCH  12  13
ENDBRANCH   1  12
TORSDOF 3
ENDMDL
MODEL        6
REMARK  Name = ZINC02460945
REMARK                            x       y       z     vdW  Elec       q    Type
REMARK                         _______ _______ _______ _____ _____    ______ ____
ROOT
ATOM      1  N   LIG    1       -1.318  -1.700  -1.126  0.00  0.00    -0.324 N 
ATOM      2  C   LIG    1       -1.809  -1.432  -2.388  0.00  0.00    +0.069 A 
ATOM      3  C   LIG    1       -2.394  -0.322  -2.982  0.00  0.00    +0.028 A 
ATOM      4  C   LIG    1       -2.786  -0.382  -4.303  0.00  0.00    +0.002 A 
ATOM      5  C   LIG    1       -2.601  -1.543  -5.040  0.00  0.00    +0.002 A 
ATOM      6  C   LIG    1       -2.021  -2.642  -4.473  0.00  0.00    +0.030 A 
ATOM      7  C   LIG    1       -1.619  -2.607  -3.135  0.00  0.00    +0.089 A 
ATOM      8  N   LIG    1       -1.042  -3.514  -2.306  0.00  0.00    -0.232 NA
ATOM      9  C   LIG    1       -0.866  -2.983  -1.131  0.00  0.00    +0.111 A 
ENDROOT
BRANCH   1  10
ATOM     10  C   LIG    1       -1.293  -0.775   0.010  0.00  0.00    +0.150 C 
BRANCH  10  12
ATOM     11  C   LIG    1       -0.016   1.306   0.009  0.00  0.00    +0.005 C 
ATOM     12  C   LIG    1        0.002  -0.004   0.002  0.00  0.00    -0.013 C 
ENDBRANCH  10  12
ENDBRANCH   1  10
BRANCH   9  13
ATOM     13  C   LIG    1       -0.251  -3.687   0.051  0.00  0.00    +0.076 C 
BRANCH  13  14
ATOM     14  C   LIG    1       -1.349  -4.386   0.855  0.00  0.00    +0.026 C 
BRANCH  14  15
ATOM     15  C   LIG    1       -0.725  -5.101   2.055  0.00  0.00    +0.105 C 
BRANCH  15  16
ATOM     16  N   LIG    1       -1.776  -5.771   2.826  0.00  0.00    -0.311 N 
ATOM     17  H   LIG    1       -2.700  -5.712   2.538  0.00  0.00    +0.149 HD
ATOM     18  C   LIG    1       -1.458  -6.468   3.934  0.00  0.00    +0.251 C 
ATOM     19  O   LIG    1       -0.298  -6.542   4.295  0.00  0.00    -0.270 OA
BRANCH  18  20
ATOM     20  C   LIG    1       -2.510  -7.138   4.705  0.00  0.00    +0.074 A 
ATOM     21  C   LIG    1       -2.397  -7.901   5.857  0.00  0.00    +0.021 A 
ATOM     22  C   LIG    1       -3.557  -8.416   6.381  0.00  0.00    +0.008 A 
ATOM     23  C   LIG    1       -4.736  -8.167   5.754  0.00  0.00    +0.046 A 
ATOM     24  S   LIG    1       -4.267  -7.190   4.401  0.00  0.00    -0.092 S 
ENDBRANCH  18  20
ENDBRANCH  15  16
ENDBRANCH  14  15
ENDBRANCH  13  14
ENDBRANCH   9  13
TORSDOF 7
ENDMDL
MODEL        7
REMARK  Name = ZINC02460924
REMARK                            x       y       z     vdW  Elec       q    Type
REMARK                         _______ _______ _______ _____ _____    ______ ____
ROOT
ATOM      1  C   LIG    1       -2.950   3.344   0.035  0.00  0.00    +0.076 C 
ENDROOT
BRANCH   1  10
ATOM      2  N   LIG    1       -0.749   3.044   1.275  0.00  0.00    -0.328 N 
ATOM      3  C   LIG    1        0.205   3.872   1.831  0.00  0.00    +0.069 A 
ATOM      4  C   LIG    1        1.397   3.655   2.510  0.00  0.00    +0.028 A 
ATOM      5  C   LIG    1        2.138   4.731   2.949  0.00  0.00    +0.002 A 
ATOM      6  C   LIG    1        1.702   6.028   2.717  0.00  0.00    +0.002 A 
ATOM      7  C   LIG    1        0.536   6.261   2.043  0.00  0.00    +0.030 A 
ATOM      8  C   LIG    1       -0.234   5.185   1.593  0.00  0.00    +0.089 A 
ATOM      9  N   LIG    1       -1.414   5.093   0.926  0.00  0.00    -0.232 NA
ATOM     10  C   LIG    1       -1.714   3.840   0.741  0.00  0.00    +0.111 A 
BRANCH   2  12
ATOM     11  C   LIG    1       -0.013   1.086   0.008  0.00  0.00    +0.027 C 
ATOM     12  C   LIG    1       -0.729   1.579   1.267  0.00  0.00    +0.120 C 
ENDBRANCH   2  12
ENDBRANCH   1  10
BRANCH   1  13
ATOM     13  C   LIG    1       -4.077   3.159   1.053  0.00  0.00    +0.026 C 
BRANCH  13  14
ATOM     14  C   LIG    1       -5.332   2.656   0.337  0.00  0.00    +0.105 C 
BRANCH  14  15
ATOM     15  N   LIG    1       -6.412   2.479   1.311  0.00  0.00    -0.311 N 
ATOM     16  H   LIG    1       -6.258   2.678   2.248  0.00  0.00    +0.149 HD
ATOM     17  C   LIG    1       -7.620   2.039   0.905  0.00  0.00    +0.251 C 
ATOM     18  O   LIG    1       -7.814   1.790  -0.270  0.00  0.00    -0.270 OA
BRANCH  17  19
ATOM     19  C   LIG    1       -8.701   1.863   1.880  0.00  0.00    +0.074 A 
ATOM     20  C   LIG    1      -10.002   1.433   1.673  0.00  0.00    +0.021 A 
ATOM     21  C   LIG    1      -10.817   1.353   2.775  0.00  0.00    +0.008 A 
ATOM     22  C   LIG    1      -10.323   1.702   3.992  0.00  0.00    +0.046 A 
ATOM     23  S   LIG    1       -8.686   2.152   3.640  0.00  0.00    -0.092 S 
ENDBRANCH  17  19
ENDBRANCH  14  15
ENDBRANCH  13  14
ENDBRANCH   1  13
TORSDOF 6
ENDMDL
